Note: can't find the initialization file spinit.
Warning: m=xx on .subckt line will override multiplier m hierarchy!

Using SPARSE 1.3 as Direct Linear Solver
Note: Starting dynamic gmin stepping
Note: Dynamic gmin stepping completed

Note: Compatibility modes selected: hs a


Circuit: test opamp tran

option SCALE: Scale is set to 1e-06 for instance and model parameters
Doing analysis at TEMP = 27.000000 and TNOM = 27.000000


Initial Transient Solution
--------------------------

Node                                   Voltage
----                                   -------
vdd                                        1.8
vss                                          0
ib                                     0.67629
gnda                               5.48161e-06
visr                                       0.3
vout3                                 0.299953
x1.net050                             0.726168
x1.net049                             0.746211
x1.net043                             0.568121
x1.voutn                              0.783101
x1.net063                            0.0979587
x1.net31                               1.40922
x1.dm_2                               0.098318
x1.vb3                                0.611362
x1.dm_1                               0.558762
x1.vb4                                0.558762
x1.net54                             0.0525936
x1.net56                             0.0525936
x1.xc0.a                              0.299953
x1.xc0.b1                             0.299953
x1.xc1.a                              0.299953
x1.xc1.b1                             0.299953
vvisr#branch                                 0
v2#branch                          0.000246075
v1#branch                         -0.000251557


No. of Data Rows : 469
t_rise_edge         =  1.116991e-06
t_rise = 1.169910e-01
sr_rise = 8.547666e-01

Warning: command 'plot' is not available during batch simulation, ignored!
    You may use Gnuplot instead.

Using SPARSE 1.3 as Direct Linear Solver
Note: Starting dynamic gmin stepping
Note: Dynamic gmin stepping completed
t_fall_edge         =  2.011741e-04
t_fall = 1.741000e-01
sr_fall = 5.743825e-01
ASCII raw file "AMP_NMCF_tran.dat"
Doing analysis at TEMP = 27.000000 and TNOM = 27.000000


No. of Data Rows : 1
ASCII raw file "AMP_NMCF_op"
Note: Simulation executed from .control section 
